Version 4
SHEET 1 880 680
SYMBOL OpAmps\\UniversalOpAmp5 208 176 R0
SYMATTR InstName U1
SYMBOL voltage 432 -112 R0
WINDOW 123 0 0 Left 0
WINDOW 39 0 0 Left 0
SYMATTR InstName V1
SYMATTR Value 9
